opendss_networks/LV29_90bus/Loads.dss
new load.Ld84_LOAD_A phases=1 bus1=B104.1.4 kv=0.249992666559  vminpu=0.1 vmaxpu=2
new load.Ld175_LOAD_B phases=1 bus1=B2696.2.4 kv=0.249992666559  vminpu=0.1 vmaxpu=2
new load.Ld250_LOAD_C phases=1 bus1=B862.3.4 kv=0.249992666559  vminpu=0.1 vmaxpu=2
new load.Ld419_LOAD_A phases=1 bus1=B1268.1.4 kv=0.249992666559  vminpu=0.1 vmaxpu=2
new load.Ld482_LOAD_B phases=1 bus1=B193.2.4 kv=0.249992666559  vminpu=0.1 vmaxpu=2
new load.Ld526_LOAD_C phases=1 bus1=B2981.3.4 kv=0.249992666559  vminpu=0.1 vmaxpu=2
new load.Ld571_LOAD_A phases=1 bus1=B289.1.4 kv=0.249992666559  vminpu=0.1 vmaxpu=2
new load.Ld768_LOAD_B phases=1 bus1=B2545.2.4 kv=0.249992666559  vminpu=0.1 vmaxpu=2
new load.Ld789_LOAD_C phases=1 bus1=B2957.3.4 kv=0.249992666559  vminpu=0.1 vmaxpu=2
new load.Ld799_LOAD_A phases=1 bus1=B1270.1.4 kv=0.249992666559  vminpu=0.1 vmaxpu=2
new load.Ld940_LOAD_B phases=1 bus1=B2428.2.4 kv=0.249992666559  vminpu=0.1 vmaxpu=2
new load.Ld998_LOAD_C phases=1 bus1=B1005.3.4 kv=0.249992666559  vminpu=0.1 vmaxpu=2
new load.Ld1023_LOAD_A phases=1 bus1=B2712.1.4 kv=0.249992666559  vminpu=0.1 vmaxpu=2
new load.Ld1162_LOAD_B phases=1 bus1=B948.2.4 kv=0.249992666559  vminpu=0.1 vmaxpu=2
new load.Ld1209_LOAD_C phases=1 bus1=B2591.3.4 kv=0.249992666559  vminpu=0.1 vmaxpu=2
new load.Ld1236_LOAD_A phases=1 bus1=B2193.1.4 kv=0.249992666559  vminpu=0.1 vmaxpu=2
new load.Ld1323_LOAD_B phases=1 bus1=B2376.2.4 kv=0.249992666559  vminpu=0.1 vmaxpu=2
new load.Ld1552_LOAD_C phases=1 bus1=B2541.3.4 kv=0.249992666559  vminpu=0.1 vmaxpu=2
new load.Ld1569_LOAD_A phases=1 bus1=B347.1.4 kv=0.249992666559  vminpu=0.1 vmaxpu=2
new load.Ld1673_LOAD_B phases=1 bus1=B318.2.4 kv=0.249992666559  vminpu=0.1 vmaxpu=2
new load.Ld1760_LOAD_C phases=1 bus1=B1742.3.4 kv=0.249992666559  vminpu=0.1 vmaxpu=2
new load.Ld1903_LOAD_A phases=1 bus1=B2044.1.4 kv=0.249992666559  vminpu=0.1 vmaxpu=2
new load.Ld2058_LOAD_B phases=1 bus1=B808.2.4 kv=0.249992666559  vminpu=0.1 vmaxpu=2
new load.Ld2170_LOAD_C phases=1 bus1=B484.3.4 kv=0.249992666559  vminpu=0.1 vmaxpu=2
new load.Ld2212_LOAD_A phases=1 bus1=B1944.1.4 kv=0.249992666559  vminpu=0.1 vmaxpu=2
new load.Ld2258_LOAD_B phases=1 bus1=B2638.2.4 kv=0.249992666559  vminpu=0.1 vmaxpu=2
new load.Ld2284_LOAD_C phases=1 bus1=B3082.3.4 kv=0.249992666559  vminpu=0.1 vmaxpu=2
new load.Ld2329_LOAD_A phases=1 bus1=B398.1.4 kv=0.249992666559  vminpu=0.1 vmaxpu=2
new load.Ld2464_LOAD_B phases=1 bus1=B2970.2.4 kv=0.249992666559  vminpu=0.1 vmaxpu=2
new load.Ld2957_LOAD_C phases=1 bus1=B2483.3.4 kv=0.249992666559  vminpu=0.1 vmaxpu=2
new load.Ld3132_LOAD_A phases=1 bus1=B2194.1.4 kv=0.249992666559  vminpu=0.1 vmaxpu=2
new load.Ld3314_LOAD_B phases=1 bus1=B1307.2.4 kv=0.249992666559  vminpu=0.1 vmaxpu=2
new load.Ld3645_LOAD_C phases=1 bus1=B1088.3.4 kv=0.249992666559  vminpu=0.1 vmaxpu=2
new load.Ld3857_LOAD_A phases=1 bus1=B116.1.4 kv=0.249992666559  vminpu=0.1 vmaxpu=2
new load.Ld3909_LOAD_B phases=1 bus1=B1856.2.4 kv=0.249992666559  vminpu=0.1 vmaxpu=2
new load.Ld4031_LOAD_C phases=1 bus1=B1276.3.4 kv=0.249992666559  vminpu=0.1 vmaxpu=2
new load.Ld4227_LOAD_A phases=1 bus1=B414.1.4 kv=0.249992666559  vminpu=0.1 vmaxpu=2
new load.Ld4555_LOAD_B phases=1 bus1=B1404.2.4 kv=0.249992666559  vminpu=0.1 vmaxpu=2
new load.Ld4589_LOAD_C phases=1 bus1=B1729.3.4 kv=0.249992666559  vminpu=0.1 vmaxpu=2
new load.Ld4665_LOAD_A phases=1 bus1=B546.1.4 kv=0.249992666559  vminpu=0.1 vmaxpu=2
new load.Ld4688_LOAD_B phases=1 bus1=B17.2.4 kv=0.249992666559  vminpu=0.1 vmaxpu=2
